	15
B9.xyz
 F    0.217348   -0.000522    0.422003
 F    0.795273    2.961350    1.545633
 F   -0.070865    2.209989   -1.130307
 F    3.600638   -0.010281    0.388568
 F   -0.083544   -2.209655   -1.129912
 F   -2.031982    0.006034    2.261195
 F   -2.617743   -1.522291   -0.964961
 F    1.621899   -0.004845   -1.826538
 F   -2.608912    1.536600   -0.964351
 F    0.777675   -2.965416    1.546278
Pb   -0.969761    0.002625   -1.966827
Pb   -1.404148   -2.004253    1.045400
Pb    2.077852   -1.807343   -0.135482
Pb   -1.392107    2.012564    1.045454
Pb    2.088378    1.795446   -0.136152
