	15
out.xyz
 F   -0.222777    0.000042    0.280927
 F    0.731365    2.281422    1.499363
 F    0.154648    2.076885   -1.180812
 F    2.776798   -0.000034    0.955716
 F    0.154476   -2.076398   -1.180924
 F   -2.120125   -0.000996    2.016078
 F   -2.316216   -1.364296   -0.998079
 F    1.814475    0.000255   -1.545365
 F   -2.316163    1.365078   -0.997208
 F    0.731799   -2.281810    1.498795
Pb   -0.783980    0.000675   -1.985515
Pb   -1.437223   -1.891633    0.980921
Pb    2.135438   -1.832139   -0.163490
Pb   -1.437719    1.890581    0.982497
Pb    2.135205    1.832370   -0.162904
