25

 F        1.754585    0.006711    1.831735
 F        1.653216    5.255197    2.810250
 F        0.554980    2.112898    0.430619
 F        4.696594    3.250969    1.126238
 F        3.662062    1.261058    4.456279
 F        0.033053    2.609567    3.366170
 F        2.532093    2.568625    2.418631
 F        4.468359    0.652167    1.606340
 F        2.213284    4.182667    0.381442
 F        4.528383    4.189779    3.666653
 F        1.787376    0.133545    1.879804
 F        1.692085    5.186840    2.694974
 F        0.637905    2.192680    0.497307
 F        4.645742    3.281925    1.228819
 F        3.636757    1.296229    4.346523
 F        0.124109    2.601664    3.291608
 F        2.509065    2.479469    2.384982
 F        4.432149    0.776696    1.637049
 F        2.213952    4.194545    0.500102
 F        4.517865    4.138986    3.537182
Pb        5.209380    2.111402    3.103796
Pb        1.536996    1.009765    3.799506
Pb        2.734285    1.475675    0.392548
Pb        0.239130    3.962775    1.613266
Pb        3.667920    5.152999    1.837198
