	30

 F    0.952545    0.421486   -0.635731
 F   -0.054512    3.288885   -0.381125
 F   -1.533486    0.940438    0.600426
 F   -2.970830    0.391092   -1.926413
 F   -5.261404   -0.826451    1.640414
 F    1.452842   -0.486496    1.575089
 F    3.143196   -2.529412    0.421122
 F   -1.593225   -2.239856   -0.141773
 F    3.093937    1.919064    1.101953
 F    2.206996   -1.221571   -1.933227
Pb   -3.424782   -0.683781    0.229738
Pb   -0.892189    1.534636   -1.781517
Pb    0.801647   -2.173935   -0.149659
Pb    0.672900    1.837902    1.446196
Pb    3.406368   -0.172003   -0.065495
 F    0.217059    2.525387   -1.208036
 F   -2.003958    1.579130    1.418530
 F   -0.604538   -0.000166   -0.222910
 F   -2.780857   -0.002103   -1.643961
 F   -1.999120   -1.585646    1.416435
 F    0.943671   -1.523801    1.410028
 F    3.278104    0.004128    0.472692
 F    0.224249   -2.524864   -1.207716
 F    0.938647    1.525989    1.409888
 F    1.674672    0.001515   -1.663357
Pb   -1.848160   -1.873439   -0.781777
Pb   -1.853686    1.870540   -0.779278
Pb    2.171105   -1.785579   -0.387296
Pb   -0.522784   -0.001432    2.154305
Pb    2.165595    1.790339   -0.387547
